/*--------------------------------*- C++ -*----------------------------------*\
  =========                 |
  \\      /  F ield         | OpenFOAM: The Open Source CFD Toolbox
   \\    /   O peration     | Website:  https://openfoam.org
    \\  /    A nd           | Version:  12
     \\/     M anipulation  |
\*---------------------------------------------------------------------------*/
FoamFile
{
    format      ascii;
    class       volVectorField;
    object      U;
}
// * * * * * * * * * * * * * * * * * * * * * * * * * * * * * * * * * * * * * //

dimensions      [0 1 -1 0 0 0 0];

internalField   uniform (0 0 0);

boundaryField
{
    top
    {
        type            fixedValue;
        value           uniform (0.5 0.2 0);
    }

    bottom
    {
        type            fixedValue;
        value           uniform (-0.1 0.2 0);
    }
    
    left
    {
        type            fixedValue;
        value           uniform (-0.1 0 0);
    }

    right
    {
        type            fixedValue;
        value           uniform (-0.1 0 0);
    }
    
    front
    {
        type            noSlip;
    }
    
    back
    {
        type            noSlip;
    }
    
}

// ************************************************************************* //
